[General]
sim-time-limit = 100s
network = ClientServer

**.client1.packetsPerStream = 1
**.client1.packetInterval = 0.1
**.client1.streamInterval = 1
**.client1.packetSize = intuniform(64, 100)
**.client1.streamId = 0
**.client1.source = 0 #client1 ID
**.client1.destination = 5 #server1d = 5
**.client1.type = 0 #audio
**.client1.protocol = "tcp"



**.client2.packetsPerStream = 2
**.client2.packetInterval = 1
**.client2.streamInterval = 2
**.client2.packetSize = intuniform(200, 500)
**.client2.streamId = 1
**.client2.source = 1 #client2 ID
**.client2.destination = 5 #server1d = 5
**.client2.type = 1 #video
**.client2.protocol = "tcp"


**.client3.packetsPerStream = 3
**.client3.packetInterval = 1
**.client3.streamInterval = 3
**.client3.packetSize = intuniform(500, 700)
**.client3.streamId = 2
**.client3.source = 2 #client2 ID
**.client3.destination = 5 #server1d = 5
**.client3.type = 2 #signals
**.client3.protocol = "tcp"


**.client4.packetsPerStream = 4
**.client4.packetInterval = 1
**.client4.streamInterval = 4
**.client4.packetSize = intuniform(710, 1200)
**.client4.streamId = 3
**.client4.source = 3 #client2 ID
**.client4.destination = 5 #server1d = 5
**.client4.type = 1 #video
**.client4.protocol = "tcp"
